feeders/18_SE001_1/012_cargasMT_1_1.dss
New Load.MT_1529799_M1 bus1=650581.1.2.3.4 phases=3 conn=Delta model=2 kv=23.1 kw=3.6208305 pf=0.92 daily=MT2_DU status=variable vmaxpu=1.5 vminpu=0.93
New Load.MT_1529799_M2 bus1=650581.1.2.3.4 phases=3 conn=Delta model=3 kv=23.1 kw=3.6208305 pf=0.92 daily=MT2_DU status=variable vmaxpu=1.5 vminpu=0.93
New Load.MT_1530586_M1 bus1=715971.1.2.3.4 phases=3 conn=Delta model=2 kv=23.1 kw=12.748977 pf=0.92 daily=MT1_DU status=variable vmaxpu=1.5 vminpu=0.93
New Load.MT_1530586_M2 bus1=715971.1.2.3.4 phases=3 conn=Delta model=3 kv=23.1 kw=12.748977 pf=0.92 daily=MT1_DU status=variable vmaxpu=1.5 vminpu=0.93
New Load.MT_1531302_M1 bus1=96771.1.2.3.4 phases=3 conn=Delta model=2 kv=23.1 kw=1.3562335 pf=0.92 daily=MT1_DU status=variable vmaxpu=1.5 vminpu=0.93
New Load.MT_1531302_M2 bus1=96771.1.2.3.4 phases=3 conn=Delta model=3 kv=23.1 kw=1.3562335 pf=0.92 daily=MT1_DU status=variable vmaxpu=1.5 vminpu=0.93
New Load.MT_1533004_M1 bus1=744662.1.2.3.4 phases=3 conn=Delta model=2 kv=23.1 kw=52.5720555 pf=0.92 daily=MT6_DU status=variable vmaxpu=1.5 vminpu=0.93
New Load.MT_1533004_M2 bus1=744662.1.2.3.4 phases=3 conn=Delta model=3 kv=23.1 kw=52.5720555 pf=0.92 daily=MT6_DU status=variable vmaxpu=1.5 vminpu=0.93
New Load.MT_1538362_M1 bus1=744662.1.2.3.4 phases=3 conn=Delta model=2 kv=23.1 kw=0 pf=0.92 daily=MT5_DU status=variable vmaxpu=1.5 vminpu=0.93
New Load.MT_1538362_M2 bus1=744662.1.2.3.4 phases=3 conn=Delta model=3 kv=23.1 kw=0 pf=0.92 daily=MT5_DU status=variable vmaxpu=1.5 vminpu=0.93
New Load.MT_1807435_M1 bus1=157531.1.2.3.4 phases=3 conn=Delta model=2 kv=23.1 kw=5.384741 pf=0.92 daily=MT4_DU status=variable vmaxpu=1.5 vminpu=0.93
New Load.MT_1807435_M2 bus1=157531.1.2.3.4 phases=3 conn=Delta model=3 kv=23.1 kw=5.384741 pf=0.92 daily=MT4_DU status=variable vmaxpu=1.5 vminpu=0.93
New Load.MT_1808024_M1 bus1=209521.1.2.3.4 phases=3 conn=Delta model=2 kv=23.1 kw=0.381103 pf=0.92 daily=MT6_DU status=variable vmaxpu=1.5 vminpu=0.93
New Load.MT_1808024_M2 bus1=209521.1.2.3.4 phases=3 conn=Delta model=3 kv=23.1 kw=0.381103 pf=0.92 daily=MT6_DU status=variable vmaxpu=1.5 vminpu=0.93
New Load.MT_1808145_M1 bus1=259241.1.2.3.4 phases=3 conn=Delta model=2 kv=23.1 kw=71.098151 pf=0.92 daily=MT6_DU status=variable vmaxpu=1.5 vminpu=0.93
New Load.MT_1808145_M2 bus1=259241.1.2.3.4 phases=3 conn=Delta model=3 kv=23.1 kw=71.098151 pf=0.92 daily=MT6_DU status=variable vmaxpu=1.5 vminpu=0.93
New Load.MT_1808445_M1 bus1=743461.1.2.3.4 phases=3 conn=Delta model=2 kv=23.1 kw=3.2395825 pf=0.92 daily=MT5_DU status=variable vmaxpu=1.5 vminpu=0.93
New Load.MT_1808445_M2 bus1=743461.1.2.3.4 phases=3 conn=Delta model=3 kv=23.1 kw=3.2395825 pf=0.92 daily=MT5_DU status=variable vmaxpu=1.5 vminpu=0.93
New Load.MT_1818905_M1 bus1=317551.1.2.3.4 phases=3 conn=Delta model=2 kv=23.1 kw=17.2331415 pf=0.92 daily=MT5_DU status=variable vmaxpu=1.5 vminpu=0.93
New Load.MT_1818905_M2 bus1=317551.1.2.3.4 phases=3 conn=Delta model=3 kv=23.1 kw=17.2331415 pf=0.92 daily=MT5_DU status=variable vmaxpu=1.5 vminpu=0.93
New Load.MT_2306835_M1 bus1=657011.1.2.3.4 phases=3 conn=Delta model=2 kv=23.1 kw=93.1617805 pf=0.92 daily=MT6_DU status=variable vmaxpu=1.5 vminpu=0.93
New Load.MT_2306835_M2 bus1=657011.1.2.3.4 phases=3 conn=Delta model=3 kv=23.1 kw=93.1617805 pf=0.92 daily=MT6_DU status=variable vmaxpu=1.5 vminpu=0.93
New Load.MT_2306836_M1 bus1=209721.1.2.3.4 phases=3 conn=Delta model=2 kv=23.1 kw=22.3021595 pf=0.92 daily=MT3_DU status=variable vmaxpu=1.5 vminpu=0.93
New Load.MT_2306836_M2 bus1=209721.1.2.3.4 phases=3 conn=Delta model=3 kv=23.1 kw=22.3021595 pf=0.92 daily=MT3_DU status=variable vmaxpu=1.5 vminpu=0.93
New Load.MT_2306982_M1 bus1=164401.1.2.3.4 phases=3 conn=Delta model=2 kv=23.1 kw=30.8102695 pf=0.92 daily=MT2_DU status=variable vmaxpu=1.5 vminpu=0.93
New Load.MT_2306982_M2 bus1=164401.1.2.3.4 phases=3 conn=Delta model=3 kv=23.1 kw=30.8102695 pf=0.92 daily=MT2_DU status=variable vmaxpu=1.5 vminpu=0.93
New Load.MT_2306997_M1 bus1=215851.1.2.3.4 phases=3 conn=Delta model=2 kv=23.1 kw=1.873815 pf=0.92 daily=MT2_DU status=variable vmaxpu=1.5 vminpu=0.93
New Load.MT_2306997_M2 bus1=215851.1.2.3.4 phases=3 conn=Delta model=3 kv=23.1 kw=1.873815 pf=0.92 daily=MT2_DU status=variable vmaxpu=1.5 vminpu=0.93
New Load.MT_2307168_M1 bus1=811671.1.2.3.4 phases=3 conn=Delta model=2 kv=23.1 kw=12.9022295 pf=0.92 daily=MT3_DU status=variable vmaxpu=1.5 vminpu=0.93
New Load.MT_2307168_M2 bus1=811671.1.2.3.4 phases=3 conn=Delta model=3 kv=23.1 kw=12.9022295 pf=0.92 daily=MT3_DU status=variable vmaxpu=1.5 vminpu=0.93
New Load.MT_2307196_M1 bus1=346061.1.2.3.4 phases=3 conn=Delta model=2 kv=23.1 kw=3.5643145 pf=0.92 daily=MT3_DU status=variable vmaxpu=1.5 vminpu=0.93
New Load.MT_2307196_M2 bus1=346061.1.2.3.4 phases=3 conn=Delta model=3 kv=23.1 kw=3.5643145 pf=0.92 daily=MT3_DU status=variable vmaxpu=1.5 vminpu=0.93
New Load.MT_2331343_M1 bus1=669451.1.2.3.4 phases=3 conn=Delta model=2 kv=23.1 kw=37.9231115 pf=0.92 daily=MT1_DU status=variable vmaxpu=1.5 vminpu=0.93
New Load.MT_2331343_M2 bus1=669451.1.2.3.4 phases=3 conn=Delta model=3 kv=23.1 kw=37.9231115 pf=0.92 daily=MT1_DU status=variable vmaxpu=1.5 vminpu=0.93
New Load.MT_2331692_M1 bus1=672751.1.2.3.4 phases=3 conn=Delta model=2 kv=23.1 kw=85.3357155 pf=0.92 daily=MT6_DU status=variable vmaxpu=1.5 vminpu=0.93
New Load.MT_2331692_M2 bus1=672751.1.2.3.4 phases=3 conn=Delta model=3 kv=23.1 kw=85.3357155 pf=0.92 daily=MT6_DU status=variable vmaxpu=1.5 vminpu=0.93
New Load.MT_2331693_M1 bus1=621481.1.2.3.4 phases=3 conn=Delta model=2 kv=23.1 kw=121.5254055 pf=0.92 daily=MT4_DU status=variable vmaxpu=1.5 vminpu=0.93
New Load.MT_2331693_M2 bus1=621481.1.2.3.4 phases=3 conn=Delta model=3 kv=23.1 kw=121.5254055 pf=0.92 daily=MT4_DU status=variable vmaxpu=1.5 vminpu=0.93
New Load.MT_2331721_M1 bus1=612681.1.2.3.4 phases=3 conn=Delta model=2 kv=23.1 kw=33.7051 pf=0.92 daily=MT4_DU status=variable vmaxpu=1.5 vminpu=0.93
New Load.MT_2331721_M2 bus1=612681.1.2.3.4 phases=3 conn=Delta model=3 kv=23.1 kw=33.7051 pf=0.92 daily=MT4_DU status=variable vmaxpu=1.5 vminpu=0.93
New Load.MT_2332655_M1 bus1=713782.1.2.3.4 phases=3 conn=Delta model=2 kv=23.1 kw=59.3280845 pf=0.92 daily=MT2_DU status=variable vmaxpu=1.5 vminpu=0.93
New Load.MT_2332655_M2 bus1=713782.1.2.3.4 phases=3 conn=Delta model=3 kv=23.1 kw=59.3280845 pf=0.92 daily=MT2_DU status=variable vmaxpu=1.5 vminpu=0.93
New Load.MT_233332_M1 bus1=739021.1.2.3.4 phases=3 conn=Delta model=2 kv=23.1 kw=21.3111545 pf=0.92 daily=MT1_DU status=variable vmaxpu=1.5 vminpu=0.93
New Load.MT_233332_M2 bus1=739021.1.2.3.4 phases=3 conn=Delta model=3 kv=23.1 kw=21.3111545 pf=0.92 daily=MT1_DU status=variable vmaxpu=1.5 vminpu=0.93
New Load.MT_2333340_M1 bus1=739211.1.2.3.4 phases=3 conn=Delta model=2 kv=23.1 kw=16.8595645 pf=0.92 daily=MT3_DU status=variable vmaxpu=1.5 vminpu=0.93
New Load.MT_2333340_M2 bus1=739211.1.2.3.4 phases=3 conn=Delta model=3 kv=23.1 kw=16.8595645 pf=0.92 daily=MT3_DU status=variable vmaxpu=1.5 vminpu=0.93
New Load.MT_2333875_M1 bus1=684821.1.2.3.4 phases=3 conn=Delta model=2 kv=23.1 kw=43.773057 pf=0.92 daily=MT6_DU status=variable vmaxpu=1.5 vminpu=0.93
New Load.MT_2333875_M2 bus1=684821.1.2.3.4 phases=3 conn=Delta model=3 kv=23.1 kw=43.773057 pf=0.92 daily=MT6_DU status=variable vmaxpu=1.5 vminpu=0.93
New Load.MT_2334573_M1 bus1=743051.1.2.3.4 phases=3 conn=Delta model=2 kv=23.1 kw=57.5094495 pf=0.92 daily=MT1_DU status=variable vmaxpu=1.5 vminpu=0.93
New Load.MT_2334573_M2 bus1=743051.1.2.3.4 phases=3 conn=Delta model=3 kv=23.1 kw=57.5094495 pf=0.92 daily=MT1_DU status=variable vmaxpu=1.5 vminpu=0.93
New Load.MT_2337808_M1 bus1=808081.1.2.3.4 phases=3 conn=Delta model=2 kv=23.1 kw=21.8191185 pf=0.92 daily=MT4_DU status=variable vmaxpu=1.5 vminpu=0.93
New Load.MT_2337808_M2 bus1=808081.1.2.3.4 phases=3 conn=Delta model=3 kv=23.1 kw=21.8191185 pf=0.92 daily=MT4_DU status=variable vmaxpu=1.5 vminpu=0.93
New Load.MT_2339121_M1 bus1=815332.1.2.3.4 phases=3 conn=Delta model=2 kv=23.1 kw=0 pf=0.92 daily=MT2_DU status=variable vmaxpu=1.5 vminpu=0.93
New Load.MT_2339121_M2 bus1=815332.1.2.3.4 phases=3 conn=Delta model=3 kv=23.1 kw=0 pf=0.92 daily=MT2_DU status=variable vmaxpu=1.5 vminpu=0.93
New Load.MT_2339122_M1 bus1=815341.1.2.3.4 phases=3 conn=Delta model=2 kv=23.1 kw=0 pf=0.92 daily=MT4_DU status=variable vmaxpu=1.5 vminpu=0.93
New Load.MT_2339122_M2 bus1=815341.1.2.3.4 phases=3 conn=Delta model=3 kv=23.1 kw=0 pf=0.92 daily=MT4_DU status=variable vmaxpu=1.5 vminpu=0.93
New Load.MT_236814_M1 bus1=786463.1.2.3.4 phases=3 conn=Delta model=2 kv=23.1 kw=5.3402725 pf=0.92 daily=MT5_DU status=variable vmaxpu=1.5 vminpu=0.93
New Load.MT_236814_M2 bus1=786463.1.2.3.4 phases=3 conn=Delta model=3 kv=23.1 kw=5.3402725 pf=0.92 daily=MT5_DU status=variable vmaxpu=1.5 vminpu=0.93
New Load.MT_237804_M1 bus1=786463.1.2.3.4 phases=3 conn=Delta model=2 kv=23.1 kw=0.682472 pf=0.92 daily=MT5_DU status=variable vmaxpu=1.5 vminpu=0.93
New Load.MT_237804_M2 bus1=786463.1.2.3.4 phases=3 conn=Delta model=3 kv=23.1 kw=0.682472 pf=0.92 daily=MT5_DU status=variable vmaxpu=1.5 vminpu=0.93
New Load.MT_2910441_M1 bus1=799871.1.2.3.4 phases=3 conn=Delta model=2 kv=23.1 kw=19.145288 pf=0.92 daily=MT4_DU status=variable vmaxpu=1.5 vminpu=0.93
New Load.MT_2910441_M2 bus1=799871.1.2.3.4 phases=3 conn=Delta model=3 kv=23.1 kw=19.145288 pf=0.92 daily=MT4_DU status=variable vmaxpu=1.5 vminpu=0.93
New Load.MT_2921220_M1 bus1=370921.1.2.3.4 phases=3 conn=Delta model=2 kv=23.1 kw=71.2371415 pf=0.92 daily=MT6_DU status=variable vmaxpu=1.5 vminpu=0.93
New Load.MT_2921220_M2 bus1=370921.1.2.3.4 phases=3 conn=Delta model=3 kv=23.1 kw=71.2371415 pf=0.92 daily=MT6_DU status=variable vmaxpu=1.5 vminpu=0.93
New Load.MT_2921372_M1 bus1=365881.1.2.3.4 phases=3 conn=Delta model=2 kv=23.1 kw=20.8530445 pf=0.92 daily=MT1_DU status=variable vmaxpu=1.5 vminpu=0.93
New Load.MT_2921372_M2 bus1=365881.1.2.3.4 phases=3 conn=Delta model=3 kv=23.1 kw=20.8530445 pf=0.92 daily=MT1_DU status=variable vmaxpu=1.5 vminpu=0.93
New Load.MT_2921373_M1 bus1=305951.1.2.3.4 phases=3 conn=Delta model=2 kv=23.1 kw=72.690482 pf=0.92 daily=MT5_DU status=variable vmaxpu=1.5 vminpu=0.93
New Load.MT_2921373_M2 bus1=305951.1.2.3.4 phases=3 conn=Delta model=3 kv=23.1 kw=72.690482 pf=0.92 daily=MT5_DU status=variable vmaxpu=1.5 vminpu=0.93
New Load.MT_2921374_M1 bus1=356301.1.2.3.4 phases=3 conn=Delta model=2 kv=23.1 kw=79.6640045 pf=0.92 daily=MT6_DU status=variable vmaxpu=1.5 vminpu=0.93
New Load.MT_2921374_M2 bus1=356301.1.2.3.4 phases=3 conn=Delta model=3 kv=23.1 kw=79.6640045 pf=0.92 daily=MT6_DU status=variable vmaxpu=1.5 vminpu=0.93
New Load.MT_2922156_M1 bus1=167361.1.2.3.4 phases=3 conn=Delta model=2 kv=23.1 kw=19.0618815 pf=0.92 daily=MT6_DU status=variable vmaxpu=1.5 vminpu=0.93
New Load.MT_2922156_M2 bus1=167361.1.2.3.4 phases=3 conn=Delta model=3 kv=23.1 kw=19.0618815 pf=0.92 daily=MT6_DU status=variable vmaxpu=1.5 vminpu=0.93
New Load.MT_2926136_M1 bus1=612621.1.2.3.4 phases=3 conn=Delta model=2 kv=23.1 kw=11.250941 pf=0.92 daily=MT2_DU status=variable vmaxpu=1.5 vminpu=0.93
New Load.MT_2926136_M2 bus1=612621.1.2.3.4 phases=3 conn=Delta model=3 kv=23.1 kw=11.250941 pf=0.92 daily=MT2_DU status=variable vmaxpu=1.5 vminpu=0.93
New Load.MT_2931584_M1 bus1=496761.1.2.3.4 phases=3 conn=Delta model=2 kv=23.1 kw=94.4440805 pf=0.92 daily=MT6_DU status=variable vmaxpu=1.5 vminpu=0.93
New Load.MT_2931584_M2 bus1=496761.1.2.3.4 phases=3 conn=Delta model=3 kv=23.1 kw=94.4440805 pf=0.92 daily=MT6_DU status=variable vmaxpu=1.5 vminpu=0.93
New Load.MT_2933698_M1 bus1=745651.1.2.3.4 phases=3 conn=Delta model=2 kv=23.1 kw=47.3525745 pf=0.92 daily=MT2_DU status=variable vmaxpu=1.5 vminpu=0.93
New Load.MT_2933698_M2 bus1=745651.1.2.3.4 phases=3 conn=Delta model=3 kv=23.1 kw=47.3525745 pf=0.92 daily=MT2_DU status=variable vmaxpu=1.5 vminpu=0.93
New Load.MT_2934518_M1 bus1=678411.1.2.3.4 phases=3 conn=Delta model=2 kv=23.1 kw=27.1091005 pf=0.92 daily=MT3_DU status=variable vmaxpu=1.5 vminpu=0.93
New Load.MT_2934518_M2 bus1=678411.1.2.3.4 phases=3 conn=Delta model=3 kv=23.1 kw=27.1091005 pf=0.92 daily=MT3_DU status=variable vmaxpu=1.5 vminpu=0.93
New Load.MT_2935594_M1 bus1=753591.1.2.3.4 phases=3 conn=Delta model=2 kv=23.1 kw=136.961739 pf=0.92 daily=MT6_DU status=variable vmaxpu=1.5 vminpu=0.93
New Load.MT_2935594_M2 bus1=753591.1.2.3.4 phases=3 conn=Delta model=3 kv=23.1 kw=136.961739 pf=0.92 daily=MT6_DU status=variable vmaxpu=1.5 vminpu=0.93
New Load.MT_2936815_M1 bus1=787581.1.2.3.4 phases=3 conn=Delta model=2 kv=23.1 kw=23.412156 pf=0.92 daily=MT4_DU status=variable vmaxpu=1.5 vminpu=0.93
New Load.MT_2936815_M2 bus1=787581.1.2.3.4 phases=3 conn=Delta model=3 kv=23.1 kw=23.412156 pf=0.92 daily=MT4_DU status=variable vmaxpu=1.5 vminpu=0.93
New Load.MT_2937805_M1 bus1=802641.1.2.3.4 phases=3 conn=Delta model=2 kv=23.1 kw=58.4544945 pf=0.92 daily=MT6_DU status=variable vmaxpu=1.5 vminpu=0.93
New Load.MT_2937805_M2 bus1=802641.1.2.3.4 phases=3 conn=Delta model=3 kv=23.1 kw=58.4544945 pf=0.92 daily=MT6_DU status=variable vmaxpu=1.5 vminpu=0.93
New Load.MT_510006_M1 bus1=794711.1.2.3.4 phases=3 conn=Delta model=2 kv=23.1 kw=149.154797 pf=0.92 daily=MT6_DU status=variable vmaxpu=1.5 vminpu=0.93
New Load.MT_510006_M2 bus1=794711.1.2.3.4 phases=3 conn=Delta model=3 kv=23.1 kw=149.154797 pf=0.92 daily=MT6_DU status=variable vmaxpu=1.5 vminpu=0.93
New Load.MT_510130_M1 bus1=646261.1.2.3.4 phases=3 conn=Delta model=2 kv=23.1 kw=28.9243785 pf=0.92 daily=MT2_DU status=variable vmaxpu=1.5 vminpu=0.93
New Load.MT_510130_M2 bus1=646261.1.2.3.4 phases=3 conn=Delta model=3 kv=23.1 kw=28.9243785 pf=0.92 daily=MT2_DU status=variable vmaxpu=1.5 vminpu=0.93
New Load.MT_529176_M1 bus1=649661.1.2.3.4 phases=3 conn=Delta model=2 kv=23.1 kw=28.0005535 pf=0.92 daily=MT2_DU status=variable vmaxpu=1.5 vminpu=0.93
New Load.MT_529176_M2 bus1=649661.1.2.3.4 phases=3 conn=Delta model=3 kv=23.1 kw=28.0005535 pf=0.92 daily=MT2_DU status=variable vmaxpu=1.5 vminpu=0.93
New Load.MT_529177_M1 bus1=639901.1.2.3.4 phases=3 conn=Delta model=2 kv=23.1 kw=29.3959055 pf=0.92 daily=MT3_DU status=variable vmaxpu=1.5 vminpu=0.93
New Load.MT_529177_M2 bus1=639901.1.2.3.4 phases=3 conn=Delta model=3 kv=23.1 kw=29.3959055 pf=0.92 daily=MT3_DU status=variable vmaxpu=1.5 vminpu=0.93
New Load.MT_530587_M1 bus1=715881.1.2.3.4 phases=3 conn=Delta model=2 kv=23.1 kw=27.5084945 pf=0.92 daily=MT1_DU status=variable vmaxpu=1.5 vminpu=0.93
New Load.MT_530587_M2 bus1=715881.1.2.3.4 phases=3 conn=Delta model=3 kv=23.1 kw=27.5084945 pf=0.92 daily=MT1_DU status=variable vmaxpu=1.5 vminpu=0.93
